          12
FINAL HEAT OF FORMATION =      -849.7746243362  time =       0.0000000000
  C   -7.9798271101    0.6776918081   -0.0532285388
  C   -7.0849928010    1.7602597759    0.0294961792
  C   -5.7058415294    1.5490364812    0.0312760931
  C   -5.2231419594    0.2195333448   -0.0446043010
  C   -6.1050960756   -0.8685564920    0.0220869421
  C   -7.5344099241   -0.6444487634    0.0248126135
  H   -9.0268081830    0.8587716724   -0.0794794940
  H   -7.4774606514    2.7566353436    0.1635393862
  H   -5.0939335779    2.4479885163    0.1481876938
  H   -4.1292016456    0.0999373674   -0.1580811639
  H   -5.6916991654   -1.8878557992    0.1151090966
  H   -8.2838388636   -1.4313798704    0.1051927200
          12
FINAL HEAT OF FORMATION =      -849.7803189451  time =       1.0000000000
  C   -7.9762472744    0.6721281160   -0.0537020684
  C   -7.0833232942    1.7625348958    0.0279643926
  C   -5.7115807570    1.5443344132    0.0332080264
  C   -5.2150315563    0.2246899163   -0.0443157674
  C   -6.1123666112   -0.8699450043    0.0219471351
  C   -7.5349400144   -0.6444914488    0.0244589706
  H   -9.0530897199    0.8731998715   -0.0738438375
  H   -7.4844157587    2.7783055496    0.1739685853
  H   -5.0801796569    2.4613490841    0.1341446563
  H   -4.1042663646    0.0999805583   -0.1578580104
  H   -5.7095521084   -1.8888470436    0.1116702098
  H   -8.2685677471   -1.4302195287    0.1103670386
