          88
FINAL HEAT OF FORMATION =     -7395.0194542996  time =       0.0000000000
  C    2.8483342135   -0.0006280741   -0.0045255666
  C    1.4289004786   -0.0002063591   -0.0015456473
  C    3.5635969337    1.2269267290   -0.0069166689
  C    2.8736195031    2.4217975791   -0.0065204498
  C    1.4638064165    2.4278865557   -0.0030283373
  C    0.7317863770    1.2503077128   -0.0001734032
  C    3.5625983211   -1.2286946181   -0.0043176325
  C    2.8721816848   -2.4232572105   -0.0030070021
  C    1.4625349824   -2.4284965682   -0.0014833010
  C    0.7313352663   -1.2503780453   -0.0005537192
  C   -0.7289796856    1.2504890453    0.0028083318
  C   -1.4264589837    0.0001828227    0.0016423912
  C   -0.7293273050   -1.2502312478   -0.0000022298
  C   -1.4606313889    2.4283031728    0.0067816017
  C   -2.8704013883    2.4227140547    0.0083164652
  C   -3.5606395429    1.2280524648    0.0051126781
  C   -2.8458709673    0.0002054995    0.0022723213
  C   -3.5604106428   -1.2277088607   -0.0000300270
  C   -2.8704872134   -2.4225292613   -0.0007723979
  C   -1.4608455673   -2.4281667278   -0.0008250918
  H    3.4259732476    3.3778002619   -0.0085134627
  H    0.9642357426    3.4089006167   -0.0032398007
  H    3.4242560857   -3.3793794462   -0.0027947293
  H    0.9625571058   -3.4092571467   -0.0014951696
  H   -0.9609064195    3.4091965314    0.0090585136
  H   -3.4226197440    3.3787904198    0.0116393556
  H   -0.9612421628   -3.4091068244   -0.0015076597
  H   -3.4230481769   -3.3783966464   -0.0016189456
  C    5.0500086336    1.2290202649   -0.0123226661
  C    5.0486297776   -1.2317821505   -0.0077708386
  C   -5.0468848849    1.2306772153    0.0068531915
  C   -5.0463736510   -1.2303758612    0.0005497964
  N    5.7292866526   -0.0017129893    0.0020473970
  N   -5.7260916152    0.0001009581   -0.0143722520
  O    5.6946410242    2.2943952876   -0.0193824269
  O    5.6939059354   -2.2967894360   -0.0101522545
  O   -5.6918432951    2.2958313609    0.0160830229
  O   -5.6920466015   -2.2951333303    0.0040009979
  C    7.1880607710   -0.0075164015   -0.0238838808
  C   -7.1847281030   -0.0038259612    0.0071785340
  C   -7.7898473445   -0.0672618906    1.4106520737
  H   -7.5343517282   -0.8974310777   -0.5863932507
  H   -7.5408900123    0.9335516882   -0.5094957161
  C   -9.3041895565   -0.0755217293    1.3503558002
  H   -7.4451507409    0.8160356860    2.0095870396
  H   -7.4316625132   -0.9943548901    1.9309486673
  C   -9.8946375900   -0.1728092804    2.7439361109
  H   -9.6568811395   -0.9416964244    0.7310121099
  H   -9.6708051393    0.8590195496    0.8499341413
  C  -11.4090489312   -0.1752081493    2.7195303480
  H   -9.5324775017    0.6900845017    3.3631330362
  H   -9.5277919564   -1.1106597385    3.2390588035
  C  -11.9864177866   -0.2773246308    4.1171094233
  H  -11.7749311759   -1.0363119770    2.1004940436
  H  -11.7798636056    0.7635570070    2.2298543978
  C  -13.5009869840   -0.2751196064    4.0917559692
  H  -11.6209617710    0.5809630151    4.7402895113
  H  -11.6213535153   -1.2173707058    4.6086774295
  C  -14.0878314392   -0.3775531225    5.4763060270
  H  -13.8651970545   -1.1337259941    3.4676027159
  H  -13.8648425226    0.6662336750    3.6009372036
  C    7.7909254308   -0.0959728304   -1.4273040189
  H    7.5380237761   -0.8917874312    0.5834230134
  H    7.5465920968    0.9379102520    0.4762433390
  C    9.3057470817   -0.0931427023   -1.3706953299
  H    7.4393539547    0.7721064276   -2.0440913245
  H    7.4378047152   -1.0360969881   -1.9272628581
  C    9.8952899060   -0.1815538219   -2.7655471132
  H    9.6659551936   -0.9585044451   -0.7545902665
  H    9.6664877507    0.8425838438   -0.8681593545
  C   11.4099395090   -0.1673912079   -2.7443630965
  H    9.5228304859    0.6787621938   -3.3822942941
  H    9.5378758405   -1.1221944666   -3.2620971187
  C   11.9868143321   -0.2343409931   -4.1445093987
  H   11.7870160394   -1.0362823353   -2.1433091477
  H   11.7709843508    0.7657030464   -2.2367240351
  C   13.5013969697   -0.2104858755   -4.1213820034
  H   11.6082055920    0.6308871498   -4.7501029006
  H   11.6347486949   -1.1694967053   -4.6543419706
  C   14.0879650357   -0.2373817454   -5.5096768304
  H   13.8801277976   -1.0921226208   -3.5394346275
  H   13.8520264249    0.7119391447   -3.5868498409
  H  -15.2037830047   -0.3734462080    5.4245522947
  H  -13.7637954328    0.4828791386    6.1102065975
  H  -13.7642488610   -1.3221681775    5.9764782782
  H   13.7201477700    0.6267145147   -6.1140664399
  H   13.8103380089   -1.1795320209   -6.0410103014
  H   15.2025687355   -0.1795264281   -5.4595161738
