          12
FINAL HEAT OF FORMATION =      -849.7746243362  time =       0.0000000000
  C   -7.9798271101    0.6776918081   -0.0532285388
  C   -7.0849928010    1.7602597759    0.0294961792
  C   -5.7058415294    1.5490364812    0.0312760931
  C   -5.2231419594    0.2195333448   -0.0446043010
  C   -6.1050960756   -0.8685564920    0.0220869421
  C   -7.5344099241   -0.6444487634    0.0248126135
  H   -9.0268081830    0.8587716724   -0.0794794940
  H   -7.4774606514    2.7566353436    0.1635393862
  H   -5.0939335779    2.4479885163    0.1481876938
  H   -4.1292016456    0.0999373674   -0.1580811639
  H   -5.6916991654   -1.8878557992    0.1151090966
  H   -8.2838388636   -1.4313798704    0.1051927200
          12
FINAL HEAT OF FORMATION =      -849.7746288470  time =       0.1000000000
  C   -7.9794837051    0.6771296812   -0.0533461259
  C   -7.0847408363    1.7604648862    0.0293891792
  C   -5.7064365378    1.5486575053    0.0313929842
  C   -5.2223721424    0.2200226650   -0.0445381592
  C   -6.1058207731   -0.8687543140    0.0220237505
  C   -7.5345720451   -0.6444060893    0.0248093567
  H   -9.0285782706    0.8597872581   -0.0789493129
  H   -7.4779468294    2.7585666161    0.1647291115
  H   -5.0928108849    2.4496803606    0.1472085328
  H   -4.1266397039    0.1001446241   -0.1581266597
  H   -5.6933639204   -1.8880804816    0.1147794307
  H   -8.2822015110   -1.4311748836    0.1061243549
          12
FINAL HEAT OF FORMATION =      -849.7746327470  time =       0.2000000000
  C   -7.9791286166    0.6765646279   -0.0534594693
  C   -7.0844876523    1.7606609453    0.0292821991
  C   -5.7070380782    1.5482713620    0.0315098843
  C   -5.2216066149    0.2205159925   -0.0444712892
  C   -6.1065572305   -0.8689450602    0.0219607336
  C   -7.5347126695   -0.6443563980    0.0248047335
  H   -9.0304740769    0.8608346032   -0.0784288662
  H   -7.4784583295    2.7605605423    0.1659051406
  H   -5.0916385754    2.4513459325    0.1462128300
  H   -4.1241112964    0.1003247497   -0.1581536334
  H   -5.6950511801   -1.8882889473    0.1144335335
  H   -8.2805486446   -1.4310145778    0.1070479211
          12
FINAL HEAT OF FORMATION =      -849.7746359637  time =       0.3000000000
  C   -7.9787626447    0.6759973300   -0.0535685687
  C   -7.0842338370    1.7608482768    0.0291753330
  C   -5.7076453635    1.5478787172    0.0316268040
  C   -5.2208454186    0.2210127446   -0.0444037144
  C   -6.1073048329   -0.8691282869    0.0218978555
  C   -7.5348316080   -0.6442996511    0.0247987426
  H   -9.0324862748    0.8619117013   -0.0779179719
  H   -7.4789924954    2.7626098485    0.1670663323
  H   -5.0904216281    2.4529786065    0.1452001278
  H   -4.1216227302    0.1004784358   -0.1581614737
  H   -5.6967599882   -1.8884819267    0.1140715635
  H   -8.2788838500   -1.4309018703    0.1079635314
          12
FINAL HEAT OF FORMATION =      -849.7746384660  time =       0.4000000000
  C   -7.9783866241    0.6754284777   -0.0536734247
  C   -7.0839799870    1.7610272209    0.0290686772
  C   -5.7082576038    1.5474802338    0.0317437521
  C   -5.2200886026    0.2215123400   -0.0443354567
  C   -6.1080629600   -0.8693035549    0.0218350796
  C   -7.5349286917   -0.6442358207    0.0247913834
  H   -9.0346051388    0.8630164476   -0.0774164443
  H   -7.4795466068    2.7647071063    0.1682115172
  H   -5.0891650098    2.4545718356    0.1441699974
  H   -4.1191801568    0.1006063744   -0.1581495901
  H   -5.6984893657   -1.8886601939    0.1136936861
  H   -8.2772106285   -1.4308395678    0.1088712964
          12
FINAL HEAT OF FORMATION =      -849.7746402265  time =       0.5000000000
  C   -7.9780014194    0.6748587697   -0.0537740383
  C   -7.0837267051    1.7611981312    0.0289623300
  C   -5.7088740078    1.5470765690    0.0318607350
  C   -5.2193362235    0.2220142006   -0.0442665367
  C   -6.1088309868   -0.8694704303    0.0217723693
  C   -7.5350037722   -0.6441648907    0.0247826561
  H   -9.0368206012    0.8641466481   -0.0769240969
  H   -7.4801178925    2.7668447677    0.1693395016
  H   -5.0878736583    2.4561191758    0.1431220410
  H   -4.1167895558    0.1007092565   -0.1581174144
  H   -5.7002383117   -1.8888245631    0.1133000733
  H   -8.2755323844   -1.4308303534    0.1097713230
          12
FINAL HEAT OF FORMATION =      -849.7746412313  time =       0.6000000000
  C   -7.9776079204    0.6742889109   -0.0538704108
  C   -7.0834745998    1.7613613731    0.0288563906
  C   -5.7094937848    1.5466683725    0.0319777567
  C   -5.2185883467    0.2225177515   -0.0441969736
  C   -6.1096082839   -0.8696284852    0.0217096877
  C   -7.5350567230   -0.6440868573    0.0247725618
  H   -9.0391223090    0.8653000289   -0.0764407434
  H   -7.4807035441    2.7690151981    0.1704490729
  H   -5.0865524662    2.4576143085    0.1420558951
  H   -4.1144567185    0.1007877697   -0.1580644026
  H   -5.7020058058   -1.8889758851    0.1128909031
  H   -8.2738524117   -1.4308767725    0.1106637119
          12
FINAL HEAT OF FORMATION =      -849.7746414802  time =       0.7000000000
  C   -7.9772070381    0.6737196114   -0.0539625439
  C   -7.0832242830    1.7615173201    0.0287509598
  C   -5.7101161460    1.5462562846    0.0320948184
  C   -5.2178450474    0.2230224219   -0.0441267847
  C   -6.1103942181   -0.8697772986    0.0216469977
  C   -7.5350874400   -0.6440017304    0.0247611028
  H   -9.0414996799    0.8664742463   -0.0759662000
  H   -7.4813007283    2.7712107094    0.1715390038
  H   -5.0852062662    2.4590510627    0.1409712318
  H   -4.1121872331    0.1008425960   -0.1579900365
  H   -5.7037908089   -1.8891150431    0.1124663594
  H   -8.2721738815   -1.4309812195    0.1115485561
          12
FINAL HEAT OF FORMATION =      -849.7746409857  time =       0.8000000000
  C   -7.9767996998    0.6731515855   -0.0540504397
  C   -7.0829763692    1.7616663526    0.0286461388
  C   -5.7107403059    1.5458409342    0.0322119187
  C   -5.2171064111    0.2235276460   -0.0440559858
  C   -6.1111881525   -0.8699164565    0.0215842621
  C   -7.5350958424   -0.6439095335    0.0247482826
  H   -9.0439419565    0.8676668965   -0.0755002860
  H   -7.4819065994    2.7734235915    0.1726080575
  H   -5.0838398164    2.4604234342    0.1398677610
  H   -4.1099864711    0.1008744103   -0.1578938248
  H   -5.7055922657   -1.8892429494    0.1120266313
  H   -8.2704998302   -1.4311459251    0.1124259390
          12
FINAL HEAT OF FORMATION =      -849.7746397724  time =       0.9000000000
  C   -7.9763868450    0.6725855497   -0.0541341001
  C   -7.0827314734    1.7618088545    0.0285420292
  C   -5.7113654844    1.5454229373    0.0323290535
  C   -5.2163725345    0.2240328630   -0.0439845906
  C   -6.1119894470   -0.8700455530    0.0215214437
  C   -7.5350818735   -0.6438103051    0.0247341061
  H   -9.0464382607    0.8688755253   -0.0750428255
  H   -7.4825183119    2.7756461438    0.1736549919
  H   -5.0824577873    2.4617256041    0.1387452314
  H   -4.1078595740    0.1008838785   -0.1577753050
  H   -5.7074091058   -1.8893605411    0.1115719127
  H   -8.2688331480   -1.4313729437    0.1132959324
          12
FINAL HEAT OF FORMATION =      -849.7746378762  time =       1.0000000000
  C   -7.9759694212    0.6720222219   -0.0542135273
  C   -7.0824902097    1.7619452117    0.0284387324
  C   -5.7119909073    1.5450028957    0.0324462153
  C   -5.2156435265    0.2245375183   -0.0439126112
  C   -6.1127974587   -0.8701641908    0.0214585055
  C   -7.5350455014   -0.6437040990    0.0247185795
  H   -9.0489776448    0.8700976379   -0.0745936484
  H   -7.4831330313    2.7778707041    0.1746785645
  H   -5.0810647494    2.4629519560    0.1376034318
  H   -4.1058114422    0.1008716553   -0.1576340440
  H   -5.7092402462   -1.8894687760    0.1111024018
  H   -8.2671765678   -1.4316641422    0.1141585949
