          46
FINAL HEAT OF FORMATION =     -3111.0951034589  time =       0.0000000000
  C    9.2752183416   -4.1375913590   -1.4176802417
  H   11.7400019985   -3.2202363248   -2.2109286531
  H   11.7404937311   -5.0247159540   -2.2588165090
  C   11.3732238301   -4.1078591573   -2.7906620095
  C    9.8580638724   -4.1077480988   -2.8075517038
  H   13.8310085335   -3.1871426261   -3.6093745858
  H   13.8264845290   -4.9921648489   -3.6575543078
  C   13.4583866293   -4.0739567305   -4.1867997508
  C   11.9429095733   -4.0699367164   -4.1949106755
  H    9.4907748684   -3.1934000502   -3.3447047891
  H   15.9156487047   -3.1518289774   -4.9898705367
  H    9.4905117536   -4.9981958098   -3.3832965342
  H   15.9127605671   -4.9590327327   -5.0351854698
  C   20.7706775547   -2.3322851589   -7.0810728678
  C   15.5478444402   -4.0409208525   -5.5651113216
  H   21.8263616789   -2.6405570412   -7.0849331811
  C   20.4261842910   -0.9814633873   -7.0839052448
  C   20.7669457502   -5.6881019026   -7.0855418949
  H   21.8233405540   -5.3822949495   -7.0881495959
  C   20.4189833499   -7.0377302430   -7.0920670874
  C   19.7604791666   -3.2835440091   -7.0751173667
  C   19.7589174536   -4.7340275557   -7.0772948032
  H   21.2090914793   -7.8027580520   -7.0954201673
  C   14.0315779784   -4.0378810124   -5.5905450375
  H   11.5719004452   -3.1510124606   -4.7209430797
  C   19.0855117669   -0.5827164528   -7.0854050302
  H   11.5670956744   -4.9557535507   -4.7717960843
  C   19.0772175848   -7.4334363318   -7.0948437684
  C   18.3724787492   -2.8696382044   -7.0743141117
  C   18.0451530260   -1.5088319396   -7.0814015746
  C   18.3702800134   -5.1451092079   -7.0779310302
  C   18.0393362565   -6.5045461413   -7.0884594109
  N   17.5402348692   -4.0063189311   -7.1057808428
  H   18.8340988381   -8.5069584971   -7.1022965913
  C   16.1110210203   -4.0069421570   -6.9903170974
  H   13.6624331101   -3.1204429913   -6.1205889766
  H   16.9992556520   -1.1753953164   -7.0849491242
  H   13.6594679189   -4.9249740744   -6.1680622041
  H   16.9922181678   -6.8346757378   -7.0924795889
  H   15.7266211154   -3.0801137416   -7.5068992442
  H   15.7244432801   -4.9077394481   -7.5500016107
  H   21.2182322829   -0.2184968780   -7.0854828423
  H   18.8450452694    0.4914718600   -7.0900178441
  H    9.6168344737   -3.2562874689   -0.8228999132
  H    9.5822367562   -5.0649469910   -0.8764848088
  H    8.1591230999   -4.1147917884   -1.4679808865
